*KEYWORD
*TITLE
$#                                                                         title
$# AUTOGENERATED MATERIAL CARD FROM Rp02, Rm, Ag and A80
$#=====================================================================================
$#  Variable Steel Script Inputdeck
$#  Script_Version_Used_For_Creating_Material_Card:ver1p1
$#  Author: AnuragSoni
$#  ORG:   ANG
$#  email: anurag.soni@autoliv.com 
$#  phone: +49 (4121) 797-5620 
$#=====================================================================================
$# MECHANICAL DATA INPUT
$# Unit (ton-mm-sec-N-MPa-Nmm) 
$# SteelName: HR-420Y480T_low
$# Rp02:    420.0 MPa
$# Rm:      480.0 MPa
$# Ag:      18.0 %
$# A80:     23.0 %
$# Alocal:  32.0 %
$# Strain extrapolation: hollomon
$#=====================================================================================
$# LEGEND DETAILS - Contours of Effective Plastic Strain
$# Maximum Strain Level = A80 = 0.23 (Color  - Red)
$# Minimum Strain Level = 0.0        (Color  - Blue) 
$# Set Grey Zone Above Maximum Strain Level
$# An Example Legend is provided in Calibration presentation
$#=====================================================================================
$# CALIBRATION DETAILS
$# File Location: Y:\MATERIAL\Steel\HR-420Y480T
$# File Name:    Calibration_HR-420Y480T_low_hollomon_DamageYES_ver1p1.pptx 
$#=====================================================================================
$# OTHER MODEL DETAILS: This material card must be recalibrated if different element 
$# type or hourglass control is used in the part model.
$# ************************************************************************************
$# Element Type: This material card is calibrated using ELFORM#1 (1-point Solid Hexa)
$# *SECTION_SOLID
$#   secid    elform       aet   
$#    1001         1         0
$# ************************************************************************************
$# Hourglass Control: Type#4 with default values
$# *HOURGLASS
$#    hgid       ihq        qm       ibq        q1        q2    qb/vdc        qw
$#    1001         4      0.15         0       1.5      0.06     0.000     0.000
$#=====================================================================================
*MAT_PIECEWISE_LINEAR_PLASTICITY_TITLE
HR-420Y480T_low_hollomon_DamageYES_ver1p1
$#     mid        ro         e        pr      sigy      etan      fail      tdel
      10017.8500E-062.1000E+023.0000E-010.0000E+000.0000E+000.0000E+000.0000E+00
$#       c         p      lcss      lcsr        vp  
     0.000     0.000     10001         0 1.0000000
$#    eps1      eps2      eps3      eps4      eps5      eps6      eps7      eps8
     0.000     0.000     0.000     0.000     0.000     0.000     0.000     0.000
$#     es1       es2       es3       es4       es5       es6       es7       es8
     0.000     0.000     0.000     0.000     0.000     0.000     0.000     0.000
*DEFINE_CURVE_TITLE
HR-420Y480T_low_hollomon_DamageYES_ver1p1
$#    lcid      sidr       sfa       sfo      offa      offo    dattyp   
     10001         0 1.0000000    1.0e-3     0.000     0.000         0
$#                a1                  o1  
      0.00000000E+00      4.20840000E+02
      1.13042862E-02      4.30994232E+02
      2.05247607E-02      4.40924385E+02
      2.96609943E-02      4.50621117E+02
      3.87145122E-02      4.60075084E+02
      4.76867988E-02      4.69276944E+02
      5.65792988E-02      4.78217355E+02
      6.53934188E-02      4.86886975E+02
      7.41305283E-02      4.95276460E+02
      8.27919614E-02      5.03376469E+02
      9.13790179E-02      5.11177659E+02
      9.98929642E-02      5.18670687E+02
      1.08335035E-01      5.25846211E+02
      1.16706433E-01      5.32694888E+02
      1.25008332E-01      5.39207377E+02
      1.33241877E-01      5.45374334E+02
      1.41408184E-01      5.51186418E+02
      1.49508342E-01      5.56634285E+02
      1.57543414E-01      5.61708593E+02
      1.65514438E-01      5.66400000E+02
$ ... 20 like lines cut
*MAT_ADD_EROSION_TITLE
HR-420Y480T_low_ollomon_DamageYES_ver1p1
$#     mid      excl    mxpres     mneps    effeps    voleps    numfip       ncs
      1001     0.000     0.000     0.000     0.000     0.000     0.000     0.000
$#  mnpres     sigp1     sigvm     mxeps     epssh     sigth   impulse    failtm
     0.000     0.000     0.000     0.000     0.000     0.000     0.000     0.000
$#    idam    dmgtyp     lcsdg     ecrit    dmgexp     dcrit    fadexp    lcregd
         1   1.0E+00     200011.8000E-01   1.0E+00   0.0E+00   3.5E+00     20002
$#  sizflg     refsz     nahsv     lcsrs    regshr    rgbiax      
         0     0.000 1.0000000     20003     0.000     0.000
$#   lcfld             epsthin    engcrt    radcrt      
         0         0     0.000     0.000     0.000     
*DEFINE_CURVE_TITLE
Triaxiality_VS_Failure_strain
$#    lcid      sidr       sfa       sfo      offa      offo    dattyp      
     20001         0     0.000     0.000     0.000     0.000         0
$#                a1                  o1  
         -1.00000000         1000.000000
         -0.34000000         1000.000000
         -0.33000001      3.20000000E-01
               0.000      3.20000000E-01
          1.00000000      3.20000000E-01
*DEFINE_CURVE_TITLE
MeshSize_VS_DamageStrainRegularizationFactor
$#    lcid      sidr       sfa       sfo      offa      offo    dattyp  
     20002         0     0.000     0.000     0.000     0.000         0
$#                a1                  o1
       0.50000000000          2.25000000
       0.65000000000          1.40000000
       0.70000000000          1.35000000
       1.00000000000          1.25000000
       1.50000000000          1.00000000
       2.00000000000          0.98000000
       2.50000000000          0.98000000
       3.00000000000          0.98000000
*DEFINE_CURVE
$#    lcid      sidr       sfa       sfo      offa      offo    dattyp  
     20003         0     0.000     0.000     0.000     0.000         0
$#                a1                  o1
       1.000000e-004          1.00000000
          0.00100000          1.00000000
          0.01000000          1.00000000
*MAT_PIECEWISE_LINEAR_PLASTICITY_TITLE
HR-500Y550T_low_hollomon_DamageYES_ver1p1
$#     mid        ro         e        pr      sigy      etan      fail      tdel
      11017.8500E-062.1000E+023.0000E-010.0000E+000.0000E+000.0000E+000.0000E+00
$#       c         p      lcss      lcsr        vp  
     0.000     0.000     11001         0 1.0000000
$#    eps1      eps2      eps3      eps4      eps5      eps6      eps7      eps8
     0.000     0.000     0.000     0.000     0.000     0.000     0.000     0.000
$#     es1       es2       es3       es4       es5       es6       es7       es8
     0.000     0.000     0.000     0.000     0.000     0.000     0.000     0.000
*DEFINE_CURVE_TITLE
HR-500Y550T_low_hollomon_DamageYES_ver1p1
$#    lcid      sidr       sfa       sfo      offa      offo    dattyp   
     11001         0 1.0000000 1.0000e-3     0.000     0.000         0
$#                a1                  o1  
      0.00000000E+00      5.01190476E+02
      9.57804389E-03      5.09986004E+02
      1.67264969E-02      5.18574088E+02
      2.38242119E-02      5.26948708E+02
      3.08719043E-02      5.35103847E+02
      3.78702741E-02      5.43033484E+02
      4.48200068E-02      5.50731600E+02
      5.17217740E-02      5.58192177E+02
      5.85762331E-02      5.65409195E+02
      6.53840283E-02      5.72376634E+02
      7.21457905E-02      5.79088476E+02
      7.88621383E-02      5.85538701E+02
      8.55336775E-02      5.91721291E+02
      9.21610021E-02      5.97630225E+02
      9.87446943E-02      6.03259485E+02
      1.05285325E-01      6.08603052E+02
      1.11783453E-01      6.13654906E+02
      1.18239629E-01      6.18409028E+02
      1.24654389E-01      6.22859399E+02
      1.31028262E-01      6.27000000E+02
$ ... 20 like lines cut
*MAT_ADD_EROSION_TITLE
HR-500Y550T_low_hollomon_DamageYES_ver1p1
$#     mid      excl    mxpres     mneps    effeps    voleps    numfip       ncs
      1101     0.000     0.000     0.000     0.000     0.000     0.000     0.000
$#  mnpres     sigp1     sigvm     mxeps     epssh     sigth   impulse    failtm
     0.000     0.000     0.000     0.000     0.000     0.000     0.000     0.000
$#    idam    dmgtyp     lcsdg     ecrit    dmgexp     dcrit    fadexp    lcregd
         1   1.0E+00     210011.4000E-01   1.0E+00   0.0E+00   3.5E+00     21002
$#  sizflg     refsz     nahsv     lcsrs    regshr    rgbiax      
         0     0.000 1.0000000     21003     0.000     0.000
$#   lcfld             epsthin    engcrt    radcrt      
         0         0     0.000     0.000     0.000     
*DEFINE_CURVE_TITLE
Triaxiality_VS_Failure_strain
$#    lcid      sidr       sfa       sfo      offa      offo    dattyp      
     21001         0     0.000     0.000     0.000     0.000         0
$#                a1                  o1  
         -1.00000000         1000.000000
         -0.34000000         1000.000000
         -0.33000001      3.60000000E-01
               0.000      3.60000000E-01
          1.00000000      3.60000000E-01
*DEFINE_CURVE_TITLE
MeshSize_VS_DamageStrainRegularizationFactor
$#    lcid      sidr       sfa       sfo      offa      offo    dattyp  
     21002         0     0.000     0.000     0.000     0.000         0
$#                a1                  o1
       0.50000000000          2.25000000
       0.65000000000          1.40000000
       0.70000000000          1.35000000
       1.00000000000          1.25000000
       1.50000000000          1.00000000
       2.00000000000          0.71000000
       2.50000000000          0.56000000
       3.00000000000          0.48000000
*DEFINE_CURVE
$#    lcid      sidr       sfa       sfo      offa      offo    dattyp  
     21003         0     0.000     0.000     0.000     0.000         0
$#                a1                  o1
       1.000000e-004          1.00000000
          0.00100000          1.00000000
          0.01000000          1.00000000
*MAT_PIECEWISE_LINEAR_PLASTICITY_TITLE
HR-550Y600T_low_hollomon_DamageYES_ver1p1
$#     mid        ro         e        pr      sigy      etan      fail      tdel
      12017.8500E-062.1000E+023.0000E-010.0000E+000.0000E+000.0000E+000.0000E+00
$#       c         p      lcss      lcsr        vp  
     0.000     0.000     12001         0 1.0000000
$#    eps1      eps2      eps3      eps4      eps5      eps6      eps7      eps8
     0.000     0.000     0.000     0.000     0.000     0.000     0.000     0.000
$#     es1       es2       es3       es4       es5       es6       es7       es8
     0.000     0.000     0.000     0.000     0.000     0.000     0.000     0.000
*DEFINE_CURVE_TITLE
HR-550Y600T_low_hollomon_DamageYES_ver1p1
$#    lcid      sidr       sfa       sfo      offa      offo    dattyp   
     12001         0 1.0000000 1.0000e-3     0.000     0.000         0
$#                a1                  o1  
      0.00000000E+00      5.51440476E+02
      8.23666207E-03      5.59715910E+02
      1.38262807E-02      5.67768405E+02
      1.93848291E-02      5.75593263E+02
      2.49126507E-02      5.83185788E+02
      3.04100835E-02      5.90541284E+02
      3.58774596E-02      5.97655053E+02
      4.13151060E-02      6.04522400E+02
      4.67233442E-02      6.11138627E+02
      5.21024907E-02      6.17499038E+02
      5.74528567E-02      6.23598937E+02
      6.27747486E-02      6.29433626E+02
      6.80684677E-02      6.34998408E+02
      7.33343110E-02      6.40288589E+02
      7.85725703E-02      6.45299469E+02
      8.37835332E-02      6.50026354E+02
      8.89674826E-02      6.54464546E+02
      9.41246973E-02      6.58609349E+02
      9.92554515E-02      6.62456066E+02
      1.04360015E-01      6.66000000E+02
$ ... 20 like lines cut
*MAT_ADD_EROSION
$#     mid      excl    mxpres     mneps    effeps    voleps    numfip       ncs
      1201     0.000     0.000     0.000     0.000     0.000     0.000     0.000
$#  mnpres     sigp1     sigvm     mxeps     epssh     sigth   impulse    failtm
     0.000     0.000     0.000     0.000     0.000     0.000     0.000     0.000
$#    idam    dmgtyp     lcsdg     ecrit    dmgexp     dcrit    fadexp    lcregd
         1   1.0E+00     220011.1000E-01   1.0E+00   0.0E+00   3.5E+00     22002
$#  sizflg     refsz     nahsv     lcsrs    regshr    rgbiax      
         0     0.000 1.0000000     22003     0.000     0.000
$#   lcfld             epsthin    engcrt    radcrt      
         0         0     0.000     0.000     0.000     
*DEFINE_CURVE_TITLE
Triaxiality_VS_Failure_strain
$#    lcid      sidr       sfa       sfo      offa      offo    dattyp      
     22001         0     0.000     0.000     0.000     0.000         0
$#                a1                  o1  
         -1.00000000         1000.000000
         -0.34000000         1000.000000
         -0.33000001      4.20000000E-01
               0.000      4.20000000E-01
          1.00000000      4.20000000E-01
*DEFINE_CURVE_TITLE
MeshSize_VS_DamageStrainRegularizationFactor
$#    lcid      sidr       sfa       sfo      offa      offo    dattyp  
     22002         0     0.000     0.000     0.000     0.000         0
$#                a1                  o1
       0.50000000000          2.25000000
       0.65000000000          1.40000000
       0.70000000000          1.35000000
       1.00000000000          1.25000000
       1.50000000000          1.00000000
       2.00000000000          0.71000000
       2.50000000000          0.56000000
       3.00000000000          0.48000000
*DEFINE_CURVE
$#    lcid      sidr       sfa       sfo      offa      offo    dattyp  
     22003         0     0.000     0.000     0.000     0.000         0
$#                a1                  o1
       1.000000e-004          1.00000000
          0.00100000          1.00000000
          0.01000000          1.00000000
*MAT_PIECEWISE_LINEAR_PLASTICITY_TITLE
HR-650Y700T_low_hollomon_DamageYES_ver1p1
$#     mid        ro         e        pr      sigy      etan      fail      tdel
      13017.8500E-062.1000E+023.0000E-010.0000E+000.0000E+000.0000E+000.0000E+00
$#       c         p      lcss      lcsr        vp  
     0.000     0.000     13001         0 1.0000000
$#    eps1      eps2      eps3      eps4      eps5      eps6      eps7      eps8
     0.000     0.000     0.000     0.000     0.000     0.000     0.000     0.000
$#     es1       es2       es3       es4       es5       es6       es7       es8
     0.000     0.000     0.000     0.000     0.000     0.000     0.000     0.000
*DEFINE_CURVE_TITLE
HR-650Y700T_low_hollomon_DamageYES_ver1p1
$#    lcid      sidr       sfa       sfo      offa      offo    dattyp   
     13001         0 1.0000000 1.0000e-3     0.000     0.000         0
$#                a1                  o1  
      0.00000000E+00      6.52011905E+02
      7.11746777E-03      6.59804116E+02
      1.11283260E-02      6.67357703E+02
      1.51231616E-02      6.74669305E+02
      1.91021019E-02      6.81735556E+02
      2.30652729E-02      6.88553093E+02
      2.70127992E-02      6.95118553E+02
      3.09448038E-02      7.01428571E+02
      3.48614083E-02      7.07479785E+02
      3.87627328E-02      7.13268830E+02
      4.26488961E-02      7.18792343E+02
      4.65200156E-02      7.24046960E+02
      5.03762073E-02      7.29029317E+02
      5.42175859E-02      7.33736051E+02
      5.80442647E-02      7.38163798E+02
      6.18563559E-02      7.42309194E+02
      6.56539702E-02      7.46168876E+02
      6.94372172E-02      7.49739480E+02
      7.32062051E-02      7.53017643E+02
      7.69610411E-02      7.56000000E+02
$ ... 20 like lines cut
*MAT_ADD_EROSION_TITLE
HR-650Y700T_low_hollomon_DamageYES_ver1p1
$#     mid      excl    mxpres     mneps    effeps    voleps    numfip       ncs
      1301     0.000     0.000     0.000     0.000     0.000     0.000     0.000
$#  mnpres     sigp1     sigvm     mxeps     epssh     sigth   impulse    failtm
     0.000     0.000     0.000     0.000     0.000     0.000     0.000     0.000
$#    idam    dmgtyp     lcsdg     ecrit    dmgexp     dcrit    fadexp    lcregd
         1   1.0E+00     230018.0000E-02   1.0E+00   0.0E+00   3.5E+00     23002
$#  sizflg     refsz     nahsv     lcsrs    regshr    rgbiax      
         0     0.000 1.0000000     23003     0.000     0.000
$#   lcfld             epsthin    engcrt    radcrt      
         0         0     0.000     0.000     0.000     
*DEFINE_CURVE_TITLE
Triaxiality_VS_Failure_strain
$#    lcid      sidr       sfa       sfo      offa      offo    dattyp      
     23001         0     0.000     0.000     0.000     0.000         0
$#                a1                  o1  
         -1.00000000         1000.000000
         -0.34000000         1000.000000
         -0.33000001      4.50000000E-01
               0.000      4.50000000E-01
          1.00000000      4.50000000E-01
*DEFINE_CURVE_TITLE
MeshSize_VS_DamageStrainRegularizationFactor
$#    lcid      sidr       sfa       sfo      offa      offo    dattyp  
     23002         0     0.000     0.000     0.000     0.000         0
$#                a1                  o1
       0.50000000000          2.25000000
       0.65000000000          1.40000000
       0.70000000000          1.35000000
       1.00000000000          1.25000000
       1.50000000000          1.00000000
       2.00000000000          0.71000000
       2.50000000000          0.56000000
       3.00000000000          0.48000000
*DEFINE_CURVE
$#    lcid      sidr       sfa       sfo      offa      offo    dattyp  
     23003         0     0.000     0.000     0.000     0.000         0
$#                a1                  o1
       1.000000e-004          1.00000000
          0.00100000          1.00000000
          0.01000000          1.00000000
*MAT_PLASTIC_KINEMATIC_TITLE
BOLT_8.8_GRADE
$#     mid        ro         e        pr      sigy      etan      beta    
      10007.85000E-6  210.0000       0.3     0.640     1.377          
$#     src       srp        fs        vp  
       0.0       0.0       0.0       0.0
*MAT_PLASTIC_KINEMATIC_TITLE
BOLT_10.9_GRADE
$#     mid        ro         e        pr      sigy      etan      beta    
      20007.85000E-6  210.0000       0.3     0.900     1.173          
$#     src       srp        fs        vp  
       0.0       0.0       0.0       0.0
*MAT_RIGID_TITLE
ALL_FIX
$#     mid        ro         e        pr         n    couple         m     alias
      30007.85000E-6  210.0000       0.3       0.0       0.0       0.0          
$#     cmo      con1      con2    
       1.0         7         7
$#lco or a1        a2        a3        v1        v2        v3  
       0.0       0.0       0.0       0.0       0.0       0.0
*MAT_RIGID_TITLE
ALL_FREE
$#     mid        ro         e        pr         n    couple         m     alias
      40007.85000E-6  210.0000       0.3       0.0       0.0       0.0          
$#     cmo      con1      con2    
       0.0         0         0
$#lco or a1        a2        a3        v1        v2        v3  
       0.0       0.0       0.0       0.0       0.0       0.0
*MAT_RIGID_TITLE
X_FREE_ONLY_IN_SYSTEM1
$#     mid        ro         e        pr         n    couple         m     alias
      50007.85000E-6  210.0000       0.3       0.0       0.0       0.0          
$#     cmo      con1      con2    
      -1.0         1    011111
$#lco or a1        a2        a3        v1        v2        v3  
       1.0       0.0       0.0       0.0       0.0       0.0
*MAT_RIGID_TITLE
X_FREE_ONLY_IN_SYSTEM2
$#     mid        ro         e        pr         n    couple         m     alias
      50017.85000E-6  210.0000       0.3       0.0       0.0       0.0          
$#     cmo      con1      con2    
      -1.0         2    011111
$#lco or a1        a2        a3        v1        v2        v3  
       2.0       0.0       0.0       0.0       0.0       0.0
*MAT_ELASTIC_TITLE
STEEL_ELASTIC
$#     mid        ro         e        pr      sigy      etan      fail      tdel
      60007.85000E-6  210.0000       0.3                    1.00000E21       0.0
*MAT_SPRING_ELASTIC
$#     mid         k 
      7000     100.0
*MAT_FABRIC_TITLE
webbing
$#     mid        ro        ea        eb        ec      prba      prca      prcb
     100001.00000E-6    3.0000       0.0       0.0       0.0       0.0       0.0
$#     gab       gbc       gca       cse        el       prl    lratio      damp
       0.0       0.0       0.0       0.0       0.0       0.0       0.0      0.05
$#    aopt       flc       fac       ela      lnrc      form     fvopt    tsrfac
       3.0       0.0       0.0       0.0       0.0        14       0.0       0.0
$#  unused    rgbrth     a0ref        a1        a2        a3        xd        xl
                 0.0       0.0       0.0       0.0       0.0       0.0       0.0
$#      v1        v2        v3        d1        d2        d3      beta    isrefg
       1.0       0.0       0.0       0.0       0.0       0.0      90.0         0
$#     lca       lcb      lcab      lcua      lcub     lcuab        rl  
         0         0         0         0         0         0       0.0
*END